data_crystal

_cell_length_a 26.13170
_cell_length_b 26.13170
_cell_length_c 6.72200
_cell_angle_alpha 90.00000
_cell_angle_beta  90.00000
_cell_angle_gamma 120.00000

_symmetry_space_group_name_	'P 1'
_symmetry_space_group_name_H-M	'P 1'

loop_
_symmetry_equiv_pos_as_xyz
  x,y,z

loop_
_atom_site_label
_atom_site_type_symbol
_atom_site_fract_x
_atom_site_fract_y
_atom_site_fract_z
_atom_site_charge
Co	Co	0.38496 0.34926 0.15008 1.14800
C 	C 	0.32926 0.20814 0.28540 -0.21500
C 	C 	0.34415 0.22015 0.08520 0.17500
C 	C 	0.34822 0.17867 0.96654 -0.04900
H 	H 	0.35980 0.18800 0.81110 0.05600
C 	C 	0.31392 0.24562 0.42300 0.52400
O 	O 	0.32382 0.29195 0.35840 -0.61700
O 	O 	0.29972 0.22892 0.59020 -0.50900
O 	O 	0.35535 0.27214 0.99570 -0.51400
Co	Co	0.05163 0.68259 0.48341 1.14900
C 	C 	0.99593 0.54147 0.61873 -0.21700
C 	C 	0.01082 0.55348 0.41853 0.18300
C 	C 	0.01489 0.51200 0.29987 -0.05600
H 	H 	0.02647 0.52133 0.14443 0.05800
C 	C 	0.98059 0.57895 0.75633 0.52500
O 	O 	0.99049 0.62528 0.69173 -0.61700
O 	O 	0.96639 0.56225 0.92353 -0.50800
O 	O 	0.02202 0.60547 0.32903 -0.51600
Co	Co	0.71829 0.01593 0.81675 1.14900
C 	C 	0.66259 0.87481 0.95207 -0.22300
C 	C 	0.67748 0.88682 0.75187 0.18600
C 	C 	0.68155 0.84534 0.63321 -0.05800
H 	H 	0.69313 0.85467 0.47777 0.05900
C 	C 	0.64725 0.91229 0.08967 0.52900
O 	O 	0.65715 0.95862 0.02507 -0.61800
O 	O 	0.63305 0.89559 0.25687 -0.51000
O 	O 	0.68868 0.93881 0.66237 -0.51700
Co	Co	0.65074 0.03570 0.15008 1.14800
C 	C 	0.79186 0.12112 0.28540 -0.21300
C 	C 	0.77985 0.12400 0.08520 0.17300
C 	C 	0.82133 0.16955 0.96654 -0.04500
H 	H 	0.81200 0.17180 0.81110 0.05500
C 	C 	0.75438 0.06830 0.42300 0.52400
O 	O 	0.70805 0.03187 0.35840 -0.61700
O 	O 	0.77108 0.07080 0.59020 -0.50800
O 	O 	0.72786 0.08321 0.99570 -0.51200
Co	Co	0.31741 0.36903 0.48341 1.14900
C 	C 	0.45853 0.45445 0.61873 -0.21700
C 	C 	0.44652 0.45733 0.41853 0.18300
C 	C 	0.48800 0.50288 0.29987 -0.05600
H 	H 	0.47867 0.50513 0.14443 0.05800
C 	C 	0.42105 0.40163 0.75633 0.52500
O 	O 	0.37472 0.36520 0.69173 -0.61700
O 	O 	0.43775 0.40413 0.92353 -0.50900
O 	O 	0.39453 0.41654 0.32903 -0.51600
Co	Co	0.98407 0.70237 0.81675 1.14900
C 	C 	0.12519 0.78779 0.95207 -0.22600
C 	C 	0.11318 0.79067 0.75187 0.18700
C 	C 	0.15466 0.83622 0.63321 -0.06000
H 	H 	0.14533 0.83847 0.47777 0.05900
C 	C 	0.08771 0.73497 0.08967 0.53100
O 	O 	0.04138 0.69854 0.02507 -0.61800
O 	O 	0.10441 0.73747 0.25687 -0.51000
O 	O 	0.06119 0.74988 0.66237 -0.51700
Co	Co	0.96430 0.61504 0.15008 1.14800
C 	C 	0.87888 0.67074 0.28540 -0.21400
C 	C 	0.87600 0.65585 0.08520 0.17600
C 	C 	0.83045 0.65178 0.96654 -0.04800
H 	H 	0.82820 0.64020 0.81110 0.05600
C 	C 	0.93170 0.68608 0.42300 0.52400
O 	O 	0.96813 0.67618 0.35840 -0.61700
O 	O 	0.92920 0.70028 0.59020 -0.50900
O 	O 	0.91679 0.64465 0.99570 -0.51300
Co	Co	0.63097 0.94837 0.48341 1.14900
C 	C 	0.54555 0.00407 0.61873 -0.21700
C 	C 	0.54267 0.98918 0.41853 0.18300
C 	C 	0.49712 0.98511 0.29987 -0.05600
H 	H 	0.49487 0.97353 0.14443 0.05800
C 	C 	0.59837 0.01941 0.75633 0.52500
O 	O 	0.63480 0.00951 0.69173 -0.61700
O 	O 	0.59587 0.03361 0.92353 -0.50800
O 	O 	0.58346 0.97798 0.32903 -0.51600
Co	Co	0.29763 0.28171 0.81675 1.14900
C 	C 	0.21221 0.33741 0.95207 -0.22300
C 	C 	0.20933 0.32252 0.75187 0.18600
C 	C 	0.16378 0.31845 0.63321 -0.05800
H 	H 	0.16153 0.30687 0.47777 0.05900
C 	C 	0.26503 0.35275 0.08967 0.52900
O 	O 	0.30146 0.34285 0.02507 -0.61800
O 	O 	0.26253 0.36695 0.25687 -0.51000
O 	O 	0.25012 0.31132 0.66237 -0.51700
Co	Co	0.61504 0.65074 0.84992 1.14900
C 	C 	0.67074 0.79186 0.71460 -0.21400
C 	C 	0.65585 0.77985 0.91480 0.17600
C 	C 	0.65178 0.82133 0.03346 -0.04800
H 	H 	0.64020 0.81200 0.18890 0.05600
C 	C 	0.68608 0.75438 0.57700 0.52400
O 	O 	0.67618 0.70805 0.64160 -0.61700
O 	O 	0.70028 0.77108 0.40980 -0.50900
O 	O 	0.64465 0.72786 0.00430 -0.51400
Co	Co	0.28171 0.98407 0.18325 1.14900
C 	C 	0.33741 0.12519 0.04793 -0.22300
C 	C 	0.32252 0.11318 0.24813 0.18600
C 	C 	0.31845 0.15466 0.36679 -0.05800
H 	H 	0.30687 0.14533 0.52223 0.05900
C 	C 	0.35275 0.08771 0.91033 0.52900
O 	O 	0.34285 0.04138 0.97493 -0.61800
O 	O 	0.36695 0.10441 0.74313 -0.51000
O 	O 	0.31132 0.06119 0.33763 -0.51700
Co	Co	0.94837 0.31741 0.51659 1.14900
C 	C 	0.00407 0.45853 0.38127 -0.21700
C 	C 	0.98918 0.44652 0.58147 0.18300
C 	C 	0.98511 0.48800 0.70013 -0.05600
H 	H 	0.97353 0.47867 0.85557 0.05800
C 	C 	0.01941 0.42105 0.24367 0.52500
O 	O 	0.00951 0.37472 0.30827 -0.61700
O 	O 	0.03361 0.43775 0.07647 -0.50800
O 	O 	0.97798 0.39453 0.67097 -0.51600
Co	Co	0.34926 0.96430 0.84992 1.14800
C 	C 	0.20814 0.87888 0.71460 -0.21300
C 	C 	0.22015 0.87600 0.91480 0.17300
C 	C 	0.17867 0.83045 0.03346 -0.04500
H 	H 	0.18800 0.82820 0.18890 0.05500
C 	C 	0.24562 0.93170 0.57700 0.52400
O 	O 	0.29195 0.96813 0.64160 -0.61700
O 	O 	0.22892 0.92920 0.40980 -0.50800
O 	O 	0.27214 0.91679 0.00430 -0.51200
Co	Co	0.01593 0.29763 0.18325 1.14900
C 	C 	0.87481 0.21221 0.04793 -0.22600
C 	C 	0.88682 0.20933 0.24813 0.18700
C 	C 	0.84534 0.16378 0.36679 -0.06000
H 	H 	0.85467 0.16153 0.52223 0.05900
C 	C 	0.91229 0.26503 0.91033 0.53100
O 	O 	0.95862 0.30146 0.97493 -0.61800
O 	O 	0.89559 0.26253 0.74313 -0.51000
O 	O 	0.93881 0.25012 0.33763 -0.51700
Co	Co	0.68259 0.63097 0.51659 1.14900
C 	C 	0.54147 0.54555 0.38127 -0.21700
C 	C 	0.55348 0.54267 0.58147 0.18300
C 	C 	0.51200 0.49712 0.70013 -0.05600
H 	H 	0.52133 0.49487 0.85557 0.05800
C 	C 	0.57895 0.59837 0.24367 0.52500
O 	O 	0.62528 0.63480 0.30827 -0.61700
O 	O 	0.56225 0.59587 0.07647 -0.50900
O 	O 	0.60547 0.58346 0.67097 -0.51600
Co	Co	0.03570 0.38496 0.84992 1.14800
C 	C 	0.12112 0.32926 0.71460 -0.21400
C 	C 	0.12400 0.34415 0.91480 0.17600
C 	C 	0.16955 0.34822 0.03346 -0.04800
H 	H 	0.17180 0.35980 0.18890 0.05600
C 	C 	0.06830 0.31392 0.57700 0.52400
O 	O 	0.03187 0.32382 0.64160 -0.61700
O 	O 	0.07080 0.29972 0.40980 -0.50900
O 	O 	0.08321 0.35535 0.00430 -0.51300
Co	Co	0.70237 0.71829 0.18325 1.14900
C 	C 	0.78779 0.66259 0.04793 -0.22300
C 	C 	0.79067 0.67748 0.24813 0.18600
C 	C 	0.83622 0.68155 0.36679 -0.05800
H 	H 	0.83847 0.69313 0.52223 0.05900
C 	C 	0.73497 0.64725 0.91033 0.52900
O 	O 	0.69854 0.65715 0.97493 -0.61800
O 	O 	0.73747 0.63305 0.74313 -0.51000
O 	O 	0.74988 0.68868 0.33763 -0.51700
Co	Co	0.36903 0.05163 0.51659 1.14900
C 	C 	0.45445 0.99593 0.38127 -0.21700
C 	C 	0.45733 0.01082 0.58147 0.18300
C 	C 	0.50288 0.01489 0.70013 -0.05600
H 	H 	0.50513 0.02647 0.85557 0.05800
C 	C 	0.40163 0.98059 0.24367 0.52500
O 	O 	0.36520 0.99049 0.30827 -0.61700
O 	O 	0.40413 0.96639 0.07647 -0.50800
O 	O 	0.41654 0.02202 0.67097 -0.51600
