data_Co-MOF-74_PM
_symmetry_space_group_name_H-M    'P1'
_cell_length_a    26.131700
_cell_length_b    26.131700
_cell_length_c    6.722000
_cell_angle_alpha    90.000000
_cell_angle_beta    90.000000
_cell_angle_gamma    120.000000
_symmetry_Int_Tables_number 1

loop_
_symmetry_equiv_pos_as_xyz
'x,y,z'

loop_
_atom_site_label
_atom_site_type_symbol
_atom_site_fract_x
_atom_site_fract_y
_atom_site_fract_z
_atom_site_charge
Co1    Co    0.384960    0.349260    0.150080    1.148000
C1    C    0.329260    0.208140    0.285400    -0.215000
C2    C    0.344150    0.220150    0.085200    0.175000
C3    C    0.348220    0.178670    0.966540    -0.049000
H1    H    0.359800    0.188000    0.811100    0.056000
C4    C    0.313920    0.245620    0.423000    0.524000
O1    O    0.323820    0.291950    0.358400    -0.617000
O2    O    0.299720    0.228920    0.590200    -0.509000
O3    O    0.355350    0.272140    0.995700    -0.514000
Co2    Co    0.051630    0.682590    0.483410    1.149000
C5    C    0.995930    0.541470    0.618730    -0.217000
C6    C    0.010820    0.553480    0.418530    0.183000
C7    C    0.014890    0.512000    0.299870    -0.056000
H2    H    0.026470    0.521330    0.144430    0.058000
C8    C    0.980590    0.578950    0.756330    0.525000
O4    O    0.990490    0.625280    0.691730    -0.617000
O5    O    0.966390    0.562250    0.923530    -0.508000
O6    O    0.022020    0.605470    0.329030    -0.516000
Co3    Co    0.718290    0.015930    0.816750    1.149000
C9    C    0.662590    0.874810    0.952070    -0.223000
C10    C    0.677480    0.886820    0.751870    0.186000
C11    C    0.681550    0.845340    0.633210    -0.058000
H3    H    0.693130    0.854670    0.477770    0.059000
C12    C    0.647250    0.912290    0.089670    0.529000
O7    O    0.657150    0.958620    0.025070    -0.618000
O8    O    0.633050    0.895590    0.256870    -0.510000
O9    O    0.688680    0.938810    0.662370    -0.517000
Co4    Co    0.650740    0.035700    0.150080    1.148000
C13    C    0.791860    0.121120    0.285400    -0.213000
C14    C    0.779850    0.124000    0.085200    0.173000
C15    C    0.821330    0.169550    0.966540    -0.045000
H4    H    0.812000    0.171800    0.811100    0.055000
C16    C    0.754380    0.068300    0.423000    0.524000
O10    O    0.708050    0.031870    0.358400    -0.617000
O11    O    0.771080    0.070800    0.590200    -0.508000
O12    O    0.727860    0.083210    0.995700    -0.512000
Co5    Co    0.317410    0.369030    0.483410    1.149000
C17    C    0.458530    0.454450    0.618730    -0.217000
C18    C    0.446520    0.457330    0.418530    0.183000
C19    C    0.488000    0.502880    0.299870    -0.056000
H5    H    0.478670    0.505130    0.144430    0.058000
C20    C    0.421050    0.401630    0.756330    0.525000
O13    O    0.374720    0.365200    0.691730    -0.617000
O14    O    0.437750    0.404130    0.923530    -0.509000
O15    O    0.394530    0.416540    0.329030    -0.516000
Co6    Co    0.984070    0.702370    0.816750    1.149000
C21    C    0.125190    0.787790    0.952070    -0.226000
C22    C    0.113180    0.790670    0.751870    0.187000
C23    C    0.154660    0.836220    0.633210    -0.060000
H6    H    0.145330    0.838470    0.477770    0.059000
C24    C    0.087710    0.734970    0.089670    0.531000
O16    O    0.041380    0.698540    0.025070    -0.618000
O17    O    0.104410    0.737470    0.256870    -0.510000
O18    O    0.061190    0.749880    0.662370    -0.517000
Co7    Co    0.964300    0.615040    0.150080    1.148000
C25    C    0.878880    0.670740    0.285400    -0.214000
C26    C    0.876000    0.655850    0.085200    0.176000
C27    C    0.830450    0.651780    0.966540    -0.048000
H7    H    0.828200    0.640200    0.811100    0.056000
C28    C    0.931700    0.686080    0.423000    0.524000
O19    O    0.968130    0.676180    0.358400    -0.617000
O20    O    0.929200    0.700280    0.590200    -0.509000
O21    O    0.916790    0.644650    0.995700    -0.513000
Co8    Co    0.630970    0.948370    0.483410    1.149000
C29    C    0.545550    0.004070    0.618730    -0.217000
C30    C    0.542670    0.989180    0.418530    0.183000
C31    C    0.497120    0.985110    0.299870    -0.056000
H8    H    0.494870    0.973530    0.144430    0.058000
C32    C    0.598370    0.019410    0.756330    0.525000
O22    O    0.634800    0.009510    0.691730    -0.617000
O23    O    0.595870    0.033610    0.923530    -0.508000
O24    O    0.583460    0.977980    0.329030    -0.516000
Co9    Co    0.297630    0.281710    0.816750    1.149000
C33    C    0.212210    0.337410    0.952070    -0.223000
C34    C    0.209330    0.322520    0.751870    0.186000
C35    C    0.163780    0.318450    0.633210    -0.058000
H9    H    0.161530    0.306870    0.477770    0.059000
C36    C    0.265030    0.352750    0.089670    0.529000
O25    O    0.301460    0.342850    0.025070    -0.618000
O26    O    0.262530    0.366950    0.256870    -0.510000
O27    O    0.250120    0.311320    0.662370    -0.517000
Co10    Co    0.615040    0.650740    0.849920    1.149000
C37    C    0.670740    0.791860    0.714600    -0.214000
C38    C    0.655850    0.779850    0.914800    0.176000
C39    C    0.651780    0.821330    0.033460    -0.048000
H10    H    0.640200    0.812000    0.188900    0.056000
C40    C    0.686080    0.754380    0.577000    0.524000
O28    O    0.676180    0.708050    0.641600    -0.617000
O29    O    0.700280    0.771080    0.409800    -0.509000
O30    O    0.644650    0.727860    0.004300    -0.514000
Co11    Co    0.281710    0.984070    0.183250    1.149000
C41    C    0.337410    0.125190    0.047930    -0.223000
C42    C    0.322520    0.113180    0.248130    0.186000
C43    C    0.318450    0.154660    0.366790    -0.058000
H11    H    0.306870    0.145330    0.522230    0.059000
C44    C    0.352750    0.087710    0.910330    0.529000
O31    O    0.342850    0.041380    0.974930    -0.618000
O32    O    0.366950    0.104410    0.743130    -0.510000
O33    O    0.311320    0.061190    0.337630    -0.517000
Co12    Co    0.948370    0.317410    0.516590    1.149000
C45    C    0.004070    0.458530    0.381270    -0.217000
C46    C    0.989180    0.446520    0.581470    0.183000
C47    C    0.985110    0.488000    0.700130    -0.056000
H12    H    0.973530    0.478670    0.855570    0.058000
C48    C    0.019410    0.421050    0.243670    0.525000
O34    O    0.009510    0.374720    0.308270    -0.617000
O35    O    0.033610    0.437750    0.076470    -0.508000
O36    O    0.977980    0.394530    0.670970    -0.516000
Co13    Co    0.349260    0.964300    0.849920    1.148000
C49    C    0.208140    0.878880    0.714600    -0.213000
C50    C    0.220150    0.876000    0.914800    0.173000
C51    C    0.178670    0.830450    0.033460    -0.045000
H13    H    0.188000    0.828200    0.188900    0.055000
C52    C    0.245620    0.931700    0.577000    0.524000
O37    O    0.291950    0.968130    0.641600    -0.617000
O38    O    0.228920    0.929200    0.409800    -0.508000
O39    O    0.272140    0.916790    0.004300    -0.512000
Co14    Co    0.015930    0.297630    0.183250    1.149000
C53    C    0.874810    0.212210    0.047930    -0.226000
C54    C    0.886820    0.209330    0.248130    0.187000
C55    C    0.845340    0.163780    0.366790    -0.060000
H14    H    0.854670    0.161530    0.522230    0.059000
C56    C    0.912290    0.265030    0.910330    0.531000
O40    O    0.958620    0.301460    0.974930    -0.618000
O41    O    0.895590    0.262530    0.743130    -0.510000
O42    O    0.938810    0.250120    0.337630    -0.517000
Co15    Co    0.682590    0.630970    0.516590    1.149000
C57    C    0.541470    0.545550    0.381270    -0.217000
C58    C    0.553480    0.542670    0.581470    0.183000
C59    C    0.512000    0.497120    0.700130    -0.056000
H15    H    0.521330    0.494870    0.855570    0.058000
C60    C    0.578950    0.598370    0.243670    0.525000
O43    O    0.625280    0.634800    0.308270    -0.617000
O44    O    0.562250    0.595870    0.076470    -0.509000
O45    O    0.605470    0.583460    0.670970    -0.516000
Co16    Co    0.035700    0.384960    0.849920    1.148000
C61    C    0.121120    0.329260    0.714600    -0.214000
C62    C    0.124000    0.344150    0.914800    0.176000
C63    C    0.169550    0.348220    0.033460    -0.048000
H16    H    0.171800    0.359800    0.188900    0.056000
C64    C    0.068300    0.313920    0.577000    0.524000
O46    O    0.031870    0.323820    0.641600    -0.617000
O47    O    0.070800    0.299720    0.409800    -0.509000
O48    O    0.083210    0.355350    0.004300    -0.513000
Co17    Co    0.702370    0.718290    0.183250    1.149000
C65    C    0.787790    0.662590    0.047930    -0.223000
C66    C    0.790670    0.677480    0.248130    0.186000
C67    C    0.836220    0.681550    0.366790    -0.058000
H17    H    0.838470    0.693130    0.522230    0.059000
C68    C    0.734970    0.647250    0.910330    0.529000
O49    O    0.698540    0.657150    0.974930    -0.618000
O50    O    0.737470    0.633050    0.743130    -0.510000
O51    O    0.749880    0.688680    0.337630    -0.517000
Co18    Co    0.369030    0.051630    0.516590    1.149000
C69    C    0.454450    0.995930    0.381270    -0.217000
C70    C    0.457330    0.010820    0.581470    0.183000
C71    C    0.502880    0.014890    0.700130    -0.056000
H18    H    0.505130    0.026470    0.855570    0.058000
C72    C    0.401630    0.980590    0.243670    0.525000
O52    O    0.365200    0.990490    0.308270    -0.617000
O53    O    0.404130    0.966390    0.076470    -0.508000
O54    O    0.416540    0.022020    0.670970    -0.516000
