data_HKUST-1_PM
_symmetry_space_group_name_H-M    'P1'
_cell_length_a    26.343000
_cell_length_b    26.343000
_cell_length_c    26.343000
_cell_angle_alpha    90.000000
_cell_angle_beta    90.000000
_cell_angle_gamma    90.000000
_symmetry_Int_Tables_number 1

loop_
_symmetry_equiv_pos_as_xyz
'x,y,z'

loop_
_atom_site_label
_atom_site_type_symbol
_atom_site_fract_x
_atom_site_fract_y
_atom_site_fract_z
Cu1    Cu    0.285270    0.285270    0.000000
Cu2    Cu    0.714730    0.714730    0.000000
Cu3    Cu    0.714730    0.285270    0.000000
Cu4    Cu    0.285270    0.714730    0.000000
Cu5    Cu    0.000000    0.285270    0.285270
Cu6    Cu    0.000000    0.714730    0.714730
Cu7    Cu    0.000000    0.714730    0.285270
Cu8    Cu    0.000000    0.285270    0.714730
Cu9    Cu    0.285270    0.000000    0.285270
Cu10    Cu    0.714730    0.000000    0.714730
Cu11    Cu    0.285270    0.000000    0.714730
Cu12    Cu    0.714730    0.000000    0.285270
Cu13    Cu    0.285270    0.785270    0.500000
Cu14    Cu    0.714730    0.214730    0.500000
Cu15    Cu    0.714730    0.785270    0.500000
Cu16    Cu    0.285270    0.214730    0.500000
Cu17    Cu    0.000000    0.785270    0.785270
Cu18    Cu    0.000000    0.214730    0.214730
Cu19    Cu    0.000000    0.214730    0.785270
Cu20    Cu    0.000000    0.785270    0.214730
Cu21    Cu    0.285270    0.500000    0.785270
Cu22    Cu    0.714730    0.500000    0.214730
Cu23    Cu    0.285270    0.500000    0.214730
Cu24    Cu    0.714730    0.500000    0.785270
Cu25    Cu    0.785270    0.285270    0.500000
Cu26    Cu    0.214730    0.714730    0.500000
Cu27    Cu    0.214730    0.285270    0.500000
Cu28    Cu    0.785270    0.714730    0.500000
Cu29    Cu    0.500000    0.285270    0.785270
Cu30    Cu    0.500000    0.714730    0.214730
Cu31    Cu    0.500000    0.714730    0.785270
Cu32    Cu    0.500000    0.285270    0.214730
Cu33    Cu    0.785270    0.000000    0.785270
Cu34    Cu    0.214730    0.000000    0.214730
Cu35    Cu    0.785270    0.000000    0.214730
Cu36    Cu    0.214730    0.000000    0.785270
Cu37    Cu    0.785270    0.785270    0.000000
Cu38    Cu    0.214730    0.214730    0.000000
Cu39    Cu    0.214730    0.785270    0.000000
Cu40    Cu    0.785270    0.214730    0.000000
Cu41    Cu    0.500000    0.785270    0.285270
Cu42    Cu    0.500000    0.214730    0.714730
Cu43    Cu    0.500000    0.214730    0.285270
Cu44    Cu    0.500000    0.785270    0.714730
Cu45    Cu    0.785270    0.500000    0.285270
Cu46    Cu    0.214730    0.500000    0.714730
Cu47    Cu    0.785270    0.500000    0.714730
Cu48    Cu    0.214730    0.500000    0.285270
O1    O    0.316640    0.243130    0.947760
O2    O    0.683360    0.756870    0.947760
O3    O    0.683360    0.243130    0.052240
O4    O    0.316640    0.756870    0.052240
O5    O    0.947760    0.316640    0.243130
O6    O    0.947760    0.683360    0.756870
O7    O    0.052240    0.683360    0.243130
O8    O    0.052240    0.316640    0.756870
O9    O    0.243130    0.947760    0.316640
O10    O    0.756870    0.947760    0.683360
O11    O    0.243130    0.052240    0.683360
O12    O    0.756870    0.052240    0.316640
O13    O    0.243130    0.316640    0.052240
O14    O    0.756870    0.683360    0.052240
O15    O    0.243130    0.683360    0.947760
O16    O    0.756870    0.316640    0.947760
O17    O    0.316640    0.947760    0.756870
O18    O    0.683360    0.947760    0.243130
O19    O    0.683360    0.052240    0.756870
O20    O    0.316640    0.052240    0.243130
O21    O    0.947760    0.243130    0.683360
O22    O    0.947760    0.756870    0.316640
O23    O    0.052240    0.243130    0.316640
O24    O    0.052240    0.756870    0.683360
O25    O    0.316640    0.743130    0.447760
O26    O    0.683360    0.256870    0.447760
O27    O    0.683360    0.743130    0.552240
O28    O    0.316640    0.256870    0.552240
O29    O    0.947760    0.816640    0.743130
O30    O    0.947760    0.183360    0.256870
O31    O    0.052240    0.183360    0.743130
O32    O    0.052240    0.816640    0.256870
O33    O    0.243130    0.447760    0.816640
O34    O    0.756870    0.447760    0.183360
O35    O    0.243130    0.552240    0.183360
O36    O    0.756870    0.552240    0.816640
O37    O    0.243130    0.816640    0.552240
O38    O    0.756870    0.183360    0.552240
O39    O    0.243130    0.183360    0.447760
O40    O    0.756870    0.816640    0.447760
O41    O    0.316640    0.447760    0.256870
O42    O    0.683360    0.447760    0.743130
O43    O    0.683360    0.552240    0.256870
O44    O    0.316640    0.552240    0.743130
O45    O    0.947760    0.743130    0.183360
O46    O    0.947760    0.256870    0.816640
O47    O    0.052240    0.743130    0.816640
O48    O    0.052240    0.256870    0.183360
O49    O    0.816640    0.243130    0.447760
O50    O    0.183360    0.756870    0.447760
O51    O    0.183360    0.243130    0.552240
O52    O    0.816640    0.756870    0.552240
O53    O    0.447760    0.316640    0.743130
O54    O    0.447760    0.683360    0.256870
O55    O    0.552240    0.683360    0.743130
O56    O    0.552240    0.316640    0.256870
O57    O    0.743130    0.947760    0.816640
O58    O    0.256870    0.947760    0.183360
O59    O    0.743130    0.052240    0.183360
O60    O    0.256870    0.052240    0.816640
O61    O    0.743130    0.316640    0.552240
O62    O    0.256870    0.683360    0.552240
O63    O    0.743130    0.683360    0.447760
O64    O    0.256870    0.316640    0.447760
O65    O    0.816640    0.947760    0.256870
O66    O    0.183360    0.947760    0.743130
O67    O    0.183360    0.052240    0.256870
O68    O    0.816640    0.052240    0.743130
O69    O    0.447760    0.243130    0.183360
O70    O    0.447760    0.756870    0.816640
O71    O    0.552240    0.243130    0.816640
O72    O    0.552240    0.756870    0.183360
O73    O    0.816640    0.743130    0.947760
O74    O    0.183360    0.256870    0.947760
O75    O    0.183360    0.743130    0.052240
O76    O    0.816640    0.256870    0.052240
O77    O    0.447760    0.816640    0.243130
O78    O    0.447760    0.183360    0.756870
O79    O    0.552240    0.183360    0.243130
O80    O    0.552240    0.816640    0.756870
O81    O    0.743130    0.447760    0.316640
O82    O    0.256870    0.447760    0.683360
O83    O    0.743130    0.552240    0.683360
O84    O    0.256870    0.552240    0.316640
O85    O    0.743130    0.816640    0.052240
O86    O    0.256870    0.183360    0.052240
O87    O    0.743130    0.183360    0.947760
O88    O    0.256870    0.816640    0.947760
O89    O    0.816640    0.447760    0.756870
O90    O    0.183360    0.447760    0.243130
O91    O    0.183360    0.552240    0.756870
O92    O    0.816640    0.552240    0.243130
O93    O    0.447760    0.743130    0.683360
O94    O    0.447760    0.256870    0.316640
O95    O    0.552240    0.743130    0.316640
O96    O    0.552240    0.256870    0.683360
O97    O    0.683360    0.756870    0.052240
O98    O    0.316640    0.243130    0.052240
O99    O    0.316640    0.756870    0.947760
O100    O    0.683360    0.243130    0.947760
O101    O    0.052240    0.683360    0.756870
O102    O    0.052240    0.316640    0.243130
O103    O    0.947760    0.316640    0.756870
O104    O    0.947760    0.683360    0.243130
O105    O    0.756870    0.052240    0.683360
O106    O    0.243130    0.052240    0.316640
O107    O    0.756870    0.947760    0.316640
O108    O    0.243130    0.947760    0.683360
O109    O    0.756870    0.683360    0.947760
O110    O    0.243130    0.316640    0.947760
O111    O    0.756870    0.316640    0.052240
O112    O    0.243130    0.683360    0.052240
O113    O    0.683360    0.052240    0.243130
O114    O    0.316640    0.052240    0.756870
O115    O    0.316640    0.947760    0.243130
O116    O    0.683360    0.947760    0.756870
O117    O    0.052240    0.756870    0.316640
O118    O    0.052240    0.243130    0.683360
O119    O    0.947760    0.756870    0.683360
O120    O    0.947760    0.243130    0.316640
O121    O    0.683360    0.256870    0.552240
O122    O    0.316640    0.743130    0.552240
O123    O    0.316640    0.256870    0.447760
O124    O    0.683360    0.743130    0.447760
O125    O    0.052240    0.183360    0.256870
O126    O    0.052240    0.816640    0.743130
O127    O    0.947760    0.816640    0.256870
O128    O    0.947760    0.183360    0.743130
O129    O    0.756870    0.552240    0.183360
O130    O    0.243130    0.552240    0.816640
O131    O    0.756870    0.447760    0.816640
O132    O    0.243130    0.447760    0.183360
O133    O    0.756870    0.183360    0.447760
O134    O    0.243130    0.816640    0.447760
O135    O    0.756870    0.816640    0.552240
O136    O    0.243130    0.183360    0.552240
O137    O    0.683360    0.552240    0.743130
O138    O    0.316640    0.552240    0.256870
O139    O    0.316640    0.447760    0.743130
O140    O    0.683360    0.447760    0.256870
O141    O    0.052240    0.256870    0.816640
O142    O    0.052240    0.743130    0.183360
O143    O    0.947760    0.256870    0.183360
O144    O    0.947760    0.743130    0.816640
O145    O    0.183360    0.756870    0.552240
O146    O    0.816640    0.243130    0.552240
O147    O    0.816640    0.756870    0.447760
O148    O    0.183360    0.243130    0.447760
O149    O    0.552240    0.683360    0.256870
O150    O    0.552240    0.316640    0.743130
O151    O    0.447760    0.316640    0.256870
O152    O    0.447760    0.683360    0.743130
O153    O    0.256870    0.052240    0.183360
O154    O    0.743130    0.052240    0.816640
O155    O    0.256870    0.947760    0.816640
O156    O    0.743130    0.947760    0.183360
O157    O    0.256870    0.683360    0.447760
O158    O    0.743130    0.316640    0.447760
O159    O    0.256870    0.316640    0.552240
O160    O    0.743130    0.683360    0.552240
O161    O    0.183360    0.052240    0.743130
O162    O    0.816640    0.052240    0.256870
O163    O    0.816640    0.947760    0.743130
O164    O    0.183360    0.947760    0.256870
O165    O    0.552240    0.756870    0.816640
O166    O    0.552240    0.243130    0.183360
O167    O    0.447760    0.756870    0.183360
O168    O    0.447760    0.243130    0.816640
O169    O    0.183360    0.256870    0.052240
O170    O    0.816640    0.743130    0.052240
O171    O    0.816640    0.256870    0.947760
O172    O    0.183360    0.743130    0.947760
O173    O    0.552240    0.183360    0.756870
O174    O    0.552240    0.816640    0.243130
O175    O    0.447760    0.816640    0.756870
O176    O    0.447760    0.183360    0.243130
O177    O    0.256870    0.552240    0.683360
O178    O    0.743130    0.552240    0.316640
O179    O    0.256870    0.447760    0.316640
O180    O    0.743130    0.447760    0.683360
O181    O    0.256870    0.183360    0.947760
O182    O    0.743130    0.816640    0.947760
O183    O    0.256870    0.816640    0.052240
O184    O    0.743130    0.183360    0.052240
O185    O    0.183360    0.552240    0.243130
O186    O    0.816640    0.552240    0.756870
O187    O    0.816640    0.447760    0.243130
O188    O    0.183360    0.447760    0.756870
O189    O    0.552240    0.256870    0.316640
O190    O    0.552240    0.743130    0.683360
O191    O    0.447760    0.256870    0.683360
O192    O    0.447760    0.743130    0.316640
C1    C    0.322000    0.178000    0.887000
C2    C    0.678000    0.822000    0.887000
C3    C    0.678000    0.178000    0.113000
C4    C    0.322000    0.822000    0.113000
C5    C    0.887000    0.322000    0.178000
C6    C    0.887000    0.678000    0.822000
C7    C    0.113000    0.678000    0.178000
C8    C    0.113000    0.322000    0.822000
C9    C    0.178000    0.887000    0.322000
C10    C    0.822000    0.887000    0.678000
C11    C    0.178000    0.113000    0.678000
C12    C    0.822000    0.113000    0.322000
C13    C    0.178000    0.322000    0.113000
C14    C    0.822000    0.678000    0.113000
C15    C    0.178000    0.678000    0.887000
C16    C    0.822000    0.322000    0.887000
C17    C    0.322000    0.887000    0.822000
C18    C    0.678000    0.887000    0.178000
C19    C    0.678000    0.113000    0.822000
C20    C    0.322000    0.113000    0.178000
C21    C    0.887000    0.178000    0.678000
C22    C    0.887000    0.822000    0.322000
C23    C    0.113000    0.178000    0.322000
C24    C    0.113000    0.822000    0.678000
C25    C    0.322000    0.678000    0.387000
C26    C    0.678000    0.322000    0.387000
C27    C    0.678000    0.678000    0.613000
C28    C    0.322000    0.322000    0.613000
C29    C    0.887000    0.822000    0.678000
C30    C    0.887000    0.178000    0.322000
C31    C    0.113000    0.178000    0.678000
C32    C    0.113000    0.822000    0.322000
C33    C    0.178000    0.387000    0.822000
C34    C    0.822000    0.387000    0.178000
C35    C    0.178000    0.613000    0.178000
C36    C    0.822000    0.613000    0.822000
C37    C    0.178000    0.822000    0.613000
C38    C    0.822000    0.178000    0.613000
C39    C    0.178000    0.178000    0.387000
C40    C    0.822000    0.822000    0.387000
C41    C    0.322000    0.387000    0.322000
C42    C    0.678000    0.387000    0.678000
C43    C    0.678000    0.613000    0.322000
C44    C    0.322000    0.613000    0.678000
C45    C    0.887000    0.678000    0.178000
C46    C    0.887000    0.322000    0.822000
C47    C    0.113000    0.678000    0.822000
C48    C    0.113000    0.322000    0.178000
C49    C    0.822000    0.178000    0.387000
C50    C    0.178000    0.822000    0.387000
C51    C    0.178000    0.178000    0.613000
C52    C    0.822000    0.822000    0.613000
C53    C    0.387000    0.322000    0.678000
C54    C    0.387000    0.678000    0.322000
C55    C    0.613000    0.678000    0.678000
C56    C    0.613000    0.322000    0.322000
C57    C    0.678000    0.887000    0.822000
C58    C    0.322000    0.887000    0.178000
C59    C    0.678000    0.113000    0.178000
C60    C    0.322000    0.113000    0.822000
C61    C    0.678000    0.322000    0.613000
C62    C    0.322000    0.678000    0.613000
C63    C    0.678000    0.678000    0.387000
C64    C    0.322000    0.322000    0.387000
C65    C    0.822000    0.887000    0.322000
C66    C    0.178000    0.887000    0.678000
C67    C    0.178000    0.113000    0.322000
C68    C    0.822000    0.113000    0.678000
C69    C    0.387000    0.178000    0.178000
C70    C    0.387000    0.822000    0.822000
C71    C    0.613000    0.178000    0.822000
C72    C    0.613000    0.822000    0.178000
C73    C    0.822000    0.678000    0.887000
C74    C    0.178000    0.322000    0.887000
C75    C    0.178000    0.678000    0.113000
C76    C    0.822000    0.322000    0.113000
C77    C    0.387000    0.822000    0.178000
C78    C    0.387000    0.178000    0.822000
C79    C    0.613000    0.178000    0.178000
C80    C    0.613000    0.822000    0.822000
C81    C    0.678000    0.387000    0.322000
C82    C    0.322000    0.387000    0.678000
C83    C    0.678000    0.613000    0.678000
C84    C    0.322000    0.613000    0.322000
C85    C    0.678000    0.822000    0.113000
C86    C    0.322000    0.178000    0.113000
C87    C    0.678000    0.178000    0.887000
C88    C    0.322000    0.822000    0.887000
C89    C    0.822000    0.387000    0.822000
C90    C    0.178000    0.387000    0.178000
C91    C    0.178000    0.613000    0.822000
C92    C    0.822000    0.613000    0.178000
C93    C    0.387000    0.678000    0.678000
C94    C    0.387000    0.322000    0.322000
C95    C    0.613000    0.678000    0.322000
C96    C    0.613000    0.322000    0.678000
C97    C    0.296800    0.203200    0.931300
C98    C    0.703200    0.796800    0.931300
C99    C    0.703200    0.203200    0.068700
C100    C    0.296800    0.796800    0.068700
C101    C    0.931300    0.296800    0.203200
C102    C    0.931300    0.703200    0.796800
C103    C    0.068700    0.703200    0.203200
C104    C    0.068700    0.296800    0.796800
C105    C    0.203200    0.931300    0.296800
C106    C    0.796800    0.931300    0.703200
C107    C    0.203200    0.068700    0.703200
C108    C    0.796800    0.068700    0.296800
C109    C    0.203200    0.296800    0.068700
C110    C    0.796800    0.703200    0.068700
C111    C    0.203200    0.703200    0.931300
C112    C    0.796800    0.296800    0.931300
C113    C    0.296800    0.931300    0.796800
C114    C    0.703200    0.931300    0.203200
C115    C    0.703200    0.068700    0.796800
C116    C    0.296800    0.068700    0.203200
C117    C    0.931300    0.203200    0.703200
C118    C    0.931300    0.796800    0.296800
C119    C    0.068700    0.203200    0.296800
C120    C    0.068700    0.796800    0.703200
C121    C    0.296800    0.703200    0.431300
C122    C    0.703200    0.296800    0.431300
C123    C    0.703200    0.703200    0.568700
C124    C    0.296800    0.296800    0.568700
C125    C    0.931300    0.796800    0.703200
C126    C    0.931300    0.203200    0.296800
C127    C    0.068700    0.203200    0.703200
C128    C    0.068700    0.796800    0.296800
C129    C    0.203200    0.431300    0.796800
C130    C    0.796800    0.431300    0.203200
C131    C    0.203200    0.568700    0.203200
C132    C    0.796800    0.568700    0.796800
C133    C    0.203200    0.796800    0.568700
C134    C    0.796800    0.203200    0.568700
C135    C    0.203200    0.203200    0.431300
C136    C    0.796800    0.796800    0.431300
C137    C    0.296800    0.431300    0.296800
C138    C    0.703200    0.431300    0.703200
C139    C    0.703200    0.568700    0.296800
C140    C    0.296800    0.568700    0.703200
C141    C    0.931300    0.703200    0.203200
C142    C    0.931300    0.296800    0.796800
C143    C    0.068700    0.703200    0.796800
C144    C    0.068700    0.296800    0.203200
C145    C    0.796800    0.203200    0.431300
C146    C    0.203200    0.796800    0.431300
C147    C    0.203200    0.203200    0.568700
C148    C    0.796800    0.796800    0.568700
C149    C    0.431300    0.296800    0.703200
C150    C    0.431300    0.703200    0.296800
C151    C    0.568700    0.703200    0.703200
C152    C    0.568700    0.296800    0.296800
C153    C    0.703200    0.931300    0.796800
C154    C    0.296800    0.931300    0.203200
C155    C    0.703200    0.068700    0.203200
C156    C    0.296800    0.068700    0.796800
C157    C    0.703200    0.296800    0.568700
C158    C    0.296800    0.703200    0.568700
C159    C    0.703200    0.703200    0.431300
C160    C    0.296800    0.296800    0.431300
C161    C    0.796800    0.931300    0.296800
C162    C    0.203200    0.931300    0.703200
C163    C    0.203200    0.068700    0.296800
C164    C    0.796800    0.068700    0.703200
C165    C    0.431300    0.203200    0.203200
C166    C    0.431300    0.796800    0.796800
C167    C    0.568700    0.203200    0.796800
C168    C    0.568700    0.796800    0.203200
C169    C    0.796800    0.703200    0.931300
C170    C    0.203200    0.296800    0.931300
C171    C    0.203200    0.703200    0.068700
C172    C    0.796800    0.296800    0.068700
C173    C    0.431300    0.796800    0.203200
C174    C    0.431300    0.203200    0.796800
C175    C    0.568700    0.203200    0.203200
C176    C    0.568700    0.796800    0.796800
C177    C    0.703200    0.431300    0.296800
C178    C    0.296800    0.431300    0.703200
C179    C    0.703200    0.568700    0.703200
C180    C    0.296800    0.568700    0.296800
C181    C    0.703200    0.796800    0.068700
C182    C    0.296800    0.203200    0.068700
C183    C    0.703200    0.203200    0.931300
C184    C    0.296800    0.796800    0.931300
C185    C    0.796800    0.431300    0.796800
C186    C    0.203200    0.431300    0.203200
C187    C    0.203200    0.568700    0.796800
C188    C    0.796800    0.568700    0.203200
C189    C    0.431300    0.703200    0.703200
C190    C    0.431300    0.296800    0.296800
C191    C    0.568700    0.703200    0.296800
C192    C    0.568700    0.296800    0.703200
C193    C    0.365500    0.199400    0.865500
C194    C    0.634500    0.800600    0.865500
C195    C    0.634500    0.199400    0.134500
C196    C    0.365500    0.800600    0.134500
C197    C    0.865500    0.365500    0.199400
C198    C    0.865500    0.634500    0.800600
C199    C    0.134500    0.634500    0.199400
C200    C    0.134500    0.365500    0.800600
C201    C    0.199400    0.865500    0.365500
C202    C    0.800600    0.865500    0.634500
C203    C    0.199400    0.134500    0.634500
C204    C    0.800600    0.134500    0.365500
C205    C    0.199400    0.365500    0.134500
C206    C    0.800600    0.634500    0.134500
C207    C    0.199400    0.634500    0.865500
C208    C    0.800600    0.365500    0.865500
C209    C    0.365500    0.865500    0.800600
C210    C    0.634500    0.865500    0.199400
C211    C    0.634500    0.134500    0.800600
C212    C    0.365500    0.134500    0.199400
C213    C    0.865500    0.199400    0.634500
C214    C    0.865500    0.800600    0.365500
C215    C    0.134500    0.199400    0.365500
C216    C    0.134500    0.800600    0.634500
C217    C    0.365500    0.699400    0.365500
C218    C    0.634500    0.300600    0.365500
C219    C    0.634500    0.699400    0.634500
C220    C    0.365500    0.300600    0.634500
C221    C    0.865500    0.865500    0.699400
C222    C    0.865500    0.134500    0.300600
C223    C    0.134500    0.134500    0.699400
C224    C    0.134500    0.865500    0.300600
C225    C    0.199400    0.365500    0.865500
C226    C    0.800600    0.365500    0.134500
C227    C    0.199400    0.634500    0.134500
C228    C    0.800600    0.634500    0.865500
C229    C    0.199400    0.865500    0.634500
C230    C    0.800600    0.134500    0.634500
C231    C    0.199400    0.134500    0.365500
C232    C    0.800600    0.865500    0.365500
C233    C    0.365500    0.365500    0.300600
C234    C    0.634500    0.365500    0.699400
C235    C    0.634500    0.634500    0.300600
C236    C    0.365500    0.634500    0.699400
C237    C    0.865500    0.699400    0.134500
C238    C    0.865500    0.300600    0.865500
C239    C    0.134500    0.699400    0.865500
C240    C    0.134500    0.300600    0.134500
C241    C    0.865500    0.199400    0.365500
C242    C    0.134500    0.800600    0.365500
C243    C    0.134500    0.199400    0.634500
C244    C    0.865500    0.800600    0.634500
C245    C    0.365500    0.365500    0.699400
C246    C    0.365500    0.634500    0.300600
C247    C    0.634500    0.634500    0.699400
C248    C    0.634500    0.365500    0.300600
C249    C    0.699400    0.865500    0.865500
C250    C    0.300600    0.865500    0.134500
C251    C    0.699400    0.134500    0.134500
C252    C    0.300600    0.134500    0.865500
C253    C    0.699400    0.365500    0.634500
C254    C    0.300600    0.634500    0.634500
C255    C    0.699400    0.634500    0.365500
C256    C    0.300600    0.365500    0.365500
C257    C    0.865500    0.865500    0.300600
C258    C    0.134500    0.865500    0.699400
C259    C    0.134500    0.134500    0.300600
C260    C    0.865500    0.134500    0.699400
C261    C    0.365500    0.199400    0.134500
C262    C    0.365500    0.800600    0.865500
C263    C    0.634500    0.199400    0.865500
C264    C    0.634500    0.800600    0.134500
C265    C    0.865500    0.699400    0.865500
C266    C    0.134500    0.300600    0.865500
C267    C    0.134500    0.699400    0.134500
C268    C    0.865500    0.300600    0.134500
C269    C    0.365500    0.865500    0.199400
C270    C    0.365500    0.134500    0.800600
C271    C    0.634500    0.134500    0.199400
C272    C    0.634500    0.865500    0.800600
C273    C    0.699400    0.365500    0.365500
C274    C    0.300600    0.365500    0.634500
C275    C    0.699400    0.634500    0.634500
C276    C    0.300600    0.634500    0.365500
C277    C    0.699400    0.865500    0.134500
C278    C    0.300600    0.134500    0.134500
C279    C    0.699400    0.134500    0.865500
C280    C    0.300600    0.865500    0.865500
C281    C    0.865500    0.365500    0.800600
C282    C    0.134500    0.365500    0.199400
C283    C    0.134500    0.634500    0.800600
C284    C    0.865500    0.634500    0.199400
C285    C    0.365500    0.699400    0.634500
C286    C    0.365500    0.300600    0.365500
C287    C    0.634500    0.699400    0.365500
C288    C    0.634500    0.300600    0.634500
H1    H    0.380200    0.228000    0.880200
H2    H    0.619800    0.772000    0.880200
H3    H    0.619800    0.228000    0.119800
H4    H    0.380200    0.772000    0.119800
H5    H    0.880200    0.380200    0.228000
H6    H    0.880200    0.619800    0.772000
H7    H    0.119800    0.619800    0.228000
H8    H    0.119800    0.380200    0.772000
H9    H    0.228000    0.880200    0.380200
H10    H    0.772000    0.880200    0.619800
H11    H    0.228000    0.119800    0.619800
H12    H    0.772000    0.119800    0.380200
H13    H    0.228000    0.380200    0.119800
H14    H    0.772000    0.619800    0.119800
H15    H    0.228000    0.619800    0.880200
H16    H    0.772000    0.380200    0.880200
H17    H    0.380200    0.880200    0.772000
H18    H    0.619800    0.880200    0.228000
H19    H    0.619800    0.119800    0.772000
H20    H    0.380200    0.119800    0.228000
H21    H    0.880200    0.228000    0.619800
H22    H    0.880200    0.772000    0.380200
H23    H    0.119800    0.228000    0.380200
H24    H    0.119800    0.772000    0.619800
H25    H    0.380200    0.728000    0.380200
H26    H    0.619800    0.272000    0.380200
H27    H    0.619800    0.728000    0.619800
H28    H    0.380200    0.272000    0.619800
H29    H    0.880200    0.880200    0.728000
H30    H    0.880200    0.119800    0.272000
H31    H    0.119800    0.119800    0.728000
H32    H    0.119800    0.880200    0.272000
H33    H    0.228000    0.380200    0.880200
H34    H    0.772000    0.380200    0.119800
H35    H    0.228000    0.619800    0.119800
H36    H    0.772000    0.619800    0.880200
H37    H    0.228000    0.880200    0.619800
H38    H    0.772000    0.119800    0.619800
H39    H    0.228000    0.119800    0.380200
H40    H    0.772000    0.880200    0.380200
H41    H    0.380200    0.380200    0.272000
H42    H    0.619800    0.380200    0.728000
H43    H    0.619800    0.619800    0.272000
H44    H    0.380200    0.619800    0.728000
H45    H    0.880200    0.728000    0.119800
H46    H    0.880200    0.272000    0.880200
H47    H    0.119800    0.728000    0.880200
H48    H    0.119800    0.272000    0.119800
H49    H    0.880200    0.228000    0.380200
H50    H    0.119800    0.772000    0.380200
H51    H    0.119800    0.228000    0.619800
H52    H    0.880200    0.772000    0.619800
H53    H    0.380200    0.380200    0.728000
H54    H    0.380200    0.619800    0.272000
H55    H    0.619800    0.619800    0.728000
H56    H    0.619800    0.380200    0.272000
H57    H    0.728000    0.880200    0.880200
H58    H    0.272000    0.880200    0.119800
H59    H    0.728000    0.119800    0.119800
H60    H    0.272000    0.119800    0.880200
H61    H    0.728000    0.380200    0.619800
H62    H    0.272000    0.619800    0.619800
H63    H    0.728000    0.619800    0.380200
H64    H    0.272000    0.380200    0.380200
H65    H    0.880200    0.880200    0.272000
H66    H    0.119800    0.880200    0.728000
H67    H    0.119800    0.119800    0.272000
H68    H    0.880200    0.119800    0.728000
H69    H    0.380200    0.228000    0.119800
H70    H    0.380200    0.772000    0.880200
H71    H    0.619800    0.228000    0.880200
H72    H    0.619800    0.772000    0.119800
H73    H    0.880200    0.728000    0.880200
H74    H    0.119800    0.272000    0.880200
H75    H    0.119800    0.728000    0.119800
H76    H    0.880200    0.272000    0.119800
H77    H    0.380200    0.880200    0.228000
H78    H    0.380200    0.119800    0.772000
H79    H    0.619800    0.119800    0.228000
H80    H    0.619800    0.880200    0.772000
H81    H    0.728000    0.380200    0.380200
H82    H    0.272000    0.380200    0.619800
H83    H    0.728000    0.619800    0.619800
H84    H    0.272000    0.619800    0.380200
H85    H    0.728000    0.880200    0.119800
H86    H    0.272000    0.119800    0.119800
H87    H    0.728000    0.119800    0.880200
H88    H    0.272000    0.880200    0.880200
H89    H    0.880200    0.380200    0.772000
H90    H    0.119800    0.380200    0.228000
H91    H    0.119800    0.619800    0.772000
H92    H    0.880200    0.619800    0.228000
H93    H    0.380200    0.728000    0.619800
H94    H    0.380200    0.272000    0.380200
H95    H    0.619800    0.728000    0.380200
H96    H    0.619800    0.272000    0.619800
